
  -OEChem-11192510503D

  8  7  0     0  0  0  0  0  0999 V2000
   -0.5894    0.1724   -0.7368 C   0  0  0  0  0  0  0  0  0  0  0  0
    0.1250    0.0508    0.5723 C   0  0  0  0  0  0  0  0  0  0  0  0
   -0.2751    0.5029    1.6348 O   0  0  0  0  0  0  0  0  0  0  0  0
    1.2871   -0.6299    0.4216 O   0  0  0  0  0  0  0  0  0  0  0  0
   -0.2712    1.0835   -1.2495 H   0  0  0  0  0  0  0  0  0  0  0  0
   -1.6669    0.2297   -0.5574 H   0  0  0  0  0  0  0  0  0  0  0  0
   -0.3871   -0.7068   -1.3536 H   0  0  0  0  0  0  0  0  0  0  0  0
    1.7733   -0.7185    1.2696 H   0  0  0  0  0  0  0  0  0  0  0  0
  1  2  1  0  0  0  0
  2  3  2  0  0  0  0
  2  4  1  0  0  0  0
  1  5  1  0  0  0  0
  1  6  1  0  0  0  0
  1  7  1  0  0  0  0
  4  8  1  0  0  0  0
M  END
$$$$
