
  -OEChem-11192510532D

 15 15  0     0  0  0  0  0  0999 V2000
   -0.8674    1.5027    0.0000 C   0  0  0  0  0  0  0  0  0  0  0  0
   -0.8674    0.4976    0.0000 C   0  0  0  0  0  0  0  0  0  0  0  0
    0.0000    0.0000    0.0000 C   0  0  0  0  0  0  0  0  0  0  0  0
    0.8674    0.4976    0.0000 C   0  0  0  0  0  0  0  0  0  0  0  0
    0.8674    1.5027    0.0000 C   0  0  0  0  0  0  0  0  0  0  0  0
    0.0000    2.0102    0.0000 C   0  0  0  0  0  0  0  0  0  0  0  0
    0.0000    3.0102    0.0000 C   0  0  0  0  0  0  0  0  0  0  0  0
    0.8660    3.5102    0.0000 O   0  0  0  0  0  0  0  0  0  0  0  0
   -0.8660    3.5102    0.0000 O   0  0  0  0  0  0  0  0  0  0  0  0
   -1.5180    1.8758    0.0000 H   0  0  0  0  0  0  0  0  0  0  0  0
   -1.5164    0.1217    0.0000 H   0  0  0  0  0  0  0  0  0  0  0  0
   -0.0000   -0.7500    0.0000 H   0  0  0  0  0  0  0  0  0  0  0  0
    1.5164    0.1217    0.0000 H   0  0  0  0  0  0  0  0  0  0  0  0
    1.5180    1.8758    0.0000 H   0  0  0  0  0  0  0  0  0  0  0  0
   -0.8660    4.2602    0.0000 H   0  0  0  0  0  0  0  0  0  0  0  0
  1  6  2  0  0  0  0
  1  2  1  0  0  0  0
  2  3  2  0  0  0  0
  3  4  1  0  0  0  0
  4  5  2  0  0  0  0
  5  6  1  0  0  0  0
  6  7  1  0  0  0  0
  7  8  2  0  0  0  0
  7  9  1  0  0  0  0
  1 10  1  0  0  0  0
  2 11  1  0  0  0  0
  3 12  1  0  0  0  0
  4 13  1  0  0  0  0
  5 14  1  0  0  0  0
  9 15  1  0  0  0  0
M  END
$$$$
